13

O          1.10475        0.00256        0.17478
C          2.37494        0.01757        0.08879
C          3.12290        1.20628        0.05549
C          4.51695        1.23978       -0.03864
C          5.22910        0.05129       -0.10444
C          4.54273       -1.15373       -0.07555
C          3.14831       -1.15317        0.01911
H          0.62862        0.80836        0.21893
H          2.61538        2.10360        0.10312
H          5.01387        2.14404       -0.05908
H          6.25867        0.06345       -0.17415
H          5.05899       -2.04601       -0.12369
H          2.66024       -2.06225        0.03888
